Version 4
SHEET 1 1048 680
WIRE -256 -176 -320 -176
WIRE -320 -160 -320 -176
WIRE -256 -160 -256 -176
WIRE 80 -128 64 -128
WIRE 176 -128 144 -128
WIRE 64 -64 64 -128
WIRE 80 -64 64 -64
WIRE 176 -64 176 -128
WIRE 176 -64 160 -64
WIRE -320 -48 -320 -96
WIRE -320 -48 -368 -48
WIRE -256 -48 -256 -80
WIRE -256 -48 -320 -48
WIRE -368 -32 -368 -48
WIRE -256 -16 -256 -48
WIRE -320 0 -320 -48
WIRE 128 0 112 0
WIRE 464 0 384 0
WIRE 656 0 464 0
WIRE 112 16 112 0
WIRE 384 16 384 0
WIRE 464 32 464 0
WIRE -320 80 -320 64
WIRE -256 80 -256 64
WIRE -256 80 -320 80
WIRE 112 96 112 80
WIRE 128 96 128 0
WIRE 64 112 64 -64
WIRE 64 112 32 112
WIRE 96 112 64 112
WIRE 176 128 176 -64
WIRE 176 128 160 128
WIRE 256 128 176 128
WIRE 384 128 384 96
WIRE 384 128 336 128
WIRE 464 128 464 96
WIRE 464 128 384 128
WIRE 96 144 80 144
WIRE 80 160 80 144
WIRE 464 192 464 128
WIRE 496 192 464 192
WIRE 656 208 656 0
WIRE 656 208 560 208
WIRE 704 208 656 208
WIRE 800 208 784 208
WIRE 496 224 464 224
WIRE 800 224 800 208
WIRE -320 256 -320 240
WIRE -320 256 -368 256
WIRE -368 272 -368 256
WIRE -320 272 -320 256
WIRE 80 272 80 256
WIRE 96 272 80 272
WIRE 176 288 160 288
WIRE 256 288 176 288
WIRE 384 288 336 288
WIRE 464 288 464 224
WIRE 464 288 384 288
WIRE 64 304 32 304
WIRE 96 304 64 304
WIRE 384 320 384 288
WIRE 464 320 464 288
WIRE 112 336 112 320
WIRE 112 416 112 400
WIRE 128 416 128 320
WIRE 128 416 112 416
WIRE 384 416 384 400
WIRE 432 416 384 416
WIRE 464 416 464 384
WIRE 464 416 432 416
WIRE 432 432 432 416
WIRE 64 480 64 304
WIRE 80 480 64 480
WIRE 176 480 176 288
WIRE 176 480 160 480
WIRE 64 544 64 480
WIRE 80 544 64 544
WIRE 176 544 176 480
WIRE 176 544 144 544
FLAG 80 160 0
FLAG -368 -32 0
FLAG -256 80 Vss
FLAG -256 -176 Vdd
FLAG 144 96 Vdd
FLAG 128 160 Vss
FLAG 32 112 Io-
FLAG 384 128 Ch-
FLAG -368 272 0
FLAG -320 160 Io-
FLAG 80 256 0
FLAG 144 320 Vdd
FLAG 128 256 Vss
FLAG 32 304 Io+
FLAG 384 288 Ch+
FLAG 432 432 0
FLAG 528 176 Vdd
FLAG 528 240 Vss
FLAG 800 224 0
FLAG -320 352 Io+
FLAG 656 208 ChOut
SYMBOL Opamps\\LT1008 128 64 R0
SYMATTR InstName U1
SYMBOL cap 96 16 R0
WINDOW 0 -21 6 Left 2
WINDOW 3 -28 53 Left 2
SYMATTR InstName C1
SYMATTR Value 22p
SYMBOL res 176 -80 R90
WINDOW 0 59 88 VBottom 2
WINDOW 3 34 30 VTop 2
SYMATTR InstName R1
SYMATTR Value {InR}
SYMBOL cap 144 -144 R90
WINDOW 0 4 65 VBottom 2
WINDOW 3 -26 -7 VTop 2
SYMATTR InstName C2
SYMATTR Value {InC}
SYMBOL res 352 112 R90
WINDOW 0 0 56 VBottom 2
WINDOW 3 32 56 VTop 2
SYMATTR InstName R2
SYMATTR Value {ChR}
SYMBOL voltage -256 -176 R0
WINDOW 123 0 0 Left 2
WINDOW 39 0 0 Left 2
SYMATTR InstName V1
SYMATTR Value 15
SYMBOL voltage -256 -32 R0
WINDOW 123 0 0 Left 2
WINDOW 39 0 0 Left 2
SYMATTR InstName V2
SYMATTR Value 15
SYMBOL cap -336 0 R0
SYMATTR InstName C3
SYMATTR Value 0.1µ
SYMBOL cap -336 -160 R0
SYMATTR InstName C4
SYMATTR Value 0.1µ
SYMBOL current -320 160 R0
WINDOW 123 0 0 Left 2
WINDOW 39 0 0 Left 2
SYMATTR InstName I1
SYMATTR Value SINE(0 7m 70k)
SYMBOL Opamps\\LT1028 528 144 R0
SYMATTR InstName U2
SYMBOL Opamps\\LT1008 128 352 M180
SYMATTR InstName U3
SYMBOL cap 96 400 M180
WINDOW 0 -22 63 Left 2
WINDOW 3 -26 5 Left 2
SYMATTR InstName C5
SYMATTR Value 22p
SYMBOL res 176 496 M270
WINDOW 0 32 89 VTop 2
WINDOW 3 60 25 VBottom 2
SYMATTR InstName R3
SYMATTR Value {InR}
SYMBOL cap 144 560 M270
WINDOW 0 -25 54 VTop 2
WINDOW 3 4 -10 VBottom 2
SYMATTR InstName C6
SYMATTR Value {InC}
SYMBOL res 352 304 M270
WINDOW 0 32 56 VTop 2
WINDOW 3 0 56 VBottom 2
SYMATTR InstName R4
SYMATTR Value {ChR}
SYMBOL res 368 0 R0
SYMATTR InstName R5
SYMATTR Value {DiffR}
SYMBOL res 368 304 R0
SYMATTR InstName R6
SYMATTR Value {DiffR}
SYMBOL cap 448 32 R0
SYMATTR InstName C7
SYMATTR Value {DiffC}
SYMBOL cap 448 320 R0
SYMATTR InstName C8
SYMATTR Value {DiffC}
SYMBOL res 800 192 R90
WINDOW 0 0 84 VBottom 2
WINDOW 3 -29 44 VTop 2
SYMATTR InstName R7
SYMATTR Value 100
SYMBOL current -320 272 R0
WINDOW 123 0 0 Left 2
WINDOW 39 0 0 Left 2
SYMATTR InstName I2
SYMATTR Value SINE(0 7m 70k)
TEXT -388 466 Left 2 !.tran 5m
TEXT 624 352 Left 2 !.param DiffR 270
TEXT 624 376 Left 2 !.param DiffC 2700p
TEXT 232 -192 Left 2 !.param InR 750
TEXT 232 -160 Left 2 !.param InC 2200p
TEXT 232 -128 Left 2 !.param ChR 560
TEXT 576 -200 Left 2 ;TODO: Replace LT1008 with NE5534
